  Page 1                                    Tue May 20 00:13:59 2025

  ******************************************************************
  *                           E P A N E T                          *
  *                   Hydraulic and Water Quality                  *
  *                   Analysis for Pipe Networks                   *
  *                         Version 2.2                            *
  ******************************************************************
  
  Analysis begun Tue May 20 00:13:59 2025

  WARNING: Pump P79 closed because cannot deliver head at 2:03:07 hrs.
   ARNING: Pump P79 closed because cannot deliver head at 2:59:01 hrs.
   