  Page 1                                    Fri Apr 25 14:26:26 2025

  ******************************************************************
  *                           E P A N E T                          *
  *                   Hydraulic and Water Quality                  *
  *                   Analysis for Pipe Networks                   *
  *                         Version 2.2                            *
  ******************************************************************
  
  Analysis begun Fri Apr 25 14:26:26 2025

  WARNING: Pump P79 closed because cannot deliver head at 50:00:00 hrs.
   
  WARNING: Pump P78 closed because cannot deliver head at 50:10:00 hrs.
   
  WARNING: Pump P78 closed because cannot deliver head at 50:20:00 hrs.
   
  WARNING: Pump P79 closed because cannot deliver head at 50:30:00 hrs.
   
  WARNING: Pump P79 closed because cannot deliver head at 50:40:00 hrs.
   
  WARNING: Pump P78 closed because cannot deliver head at 50:50:00 hrs.
   : Pump P78 closed because cannot deliver head at 50:20:00 hrs.
   
  WARNING: Pump P78 closed because cannot deliver head at 50:40:00 hrs.
   
  WARNING: Pump P78 closed because cannot deliver head at 50:50:00 hrs.
   